/*--------------------------------*- C++ -*----------------------------------*\
| =========                 |                                                 |
| \\      /  F ield         | OpenFOAM: The Open Source CFD Toolbox           |
|  \\    /   O peration     | Version:  2.1.0                                 |
|   \\  /    A nd           | Web:      www.OpenFOAM.org                      |
|    \\/     M anipulation  |                                                 |
\*---------------------------------------------------------------------------*/
FoamFile
{
    version     2.0;
    format      ascii;
    class       dictionary;
    object      fvSolution;
}
// * * * * * * * * * * * * * * * * * * * * * * * * * * * * * * * * * * * * * //

solvers
{
    alpha1
    {
        maxUnboundedness 1e-5;
        CoCoeff          2;
        maxIter          5;
        nLimiterIter     2;

        solver           PBiCG;
        preconditioner   DILU;
        tolerance        1e-12;
        relTol           0.01;
    };

    "(U|UFinal|T|TFinal)"
    {
        solver           PBiCG;
        preconditioner   DILU;
        tolerance        1e-06;
        relTol           0;
    };
    "(p_rgh|p)"
    {
        solver          PCG;     
	preconditioner 
        {
            preconditioner  GAMG;
            tolerance       1e-08;
            relTol          0;
            nVcycles        2;
            smoother        GaussSeidel;
            nPreSweeps      0;
            nPostSweeps     2;
            nFinestSweeps   2;
            cacheAgglomeration true;
            nCellsInCoarsestLevel 10;
            agglomerator    faceAreaPair;
            mergeLevels     1;
        }

        tolerance       1e-08;
        relTol          0.001;
        maxIter         20;
    };

    pcorr
    {
        $p;
        relTol           0;
    };

    "(p_rghFinal|pFinal)"
     {
        solver          PCG;
        preconditioner   
      {
            preconditioner  GAMG;
            tolerance       1e-08;
            relTol          0;
            nVcycles        2;
            smoother        GaussSeidel;
            nPreSweeps      2;
            nPostSweeps     0;
            nFinestSweeps   2;
            cacheAgglomeration true;
            nCellsInCoarsestLevel 10;
            agglomerator    faceAreaPair;
            mergeLevels     1;
        }
        tolerance       1e-08;
        relTol          0;
    };

}

"(PISO|PIMPLE)"
{
    momentumPredictor          true;
    nOuterCorrectors           1;
    nCorrectors                3;
    nNonOrthogonalCorrectors   0;
    
    nAlphaCorr                 1;
    nAlphaSubCycles            4;
    cAlpha                     1;

    pRefCell	 		0;
    pRefValue 			0.0;
 
   smoothItr                   3.0;
   kSmoothItr                  1.0;
}


// ************************************************************************* //
